<?xml version="1.0" encoding="UTF-8"?>

<!-- generated on 2023-12-25 16:42:37 by Eclipse SUMO netedit Version 1.17.0
<configuration xmlns:xsi="http://www.w3.org/2001/XMLSchema-instance" xsi:noNamespaceSchemaLocation="http://sumo.dlr.de/xsd/netconvertConfiguration.xsd">

    <input>
        <sumo-net-file value="C:\Users\ASUS\OneDrive - Technion\Studies\Theza\Scenarios\RushZone\RushZone.net.xml"/>
    </input>

    <output>
        <output-file value="C:\Users\ASUS\OneDrive - Technion\Studies\Theza\Scenarios\RushZone\RushZone.net.xml"/>
    </output>

    <processing>
        <offset.disable-normalization value="true"/>
    </processing>

    <junctions>
        <no-turnarounds value="true"/>
    </junctions>

    <netedit>
        <new-network value="false"/>
    </netedit>

</configuration>
-->

<net version="1.16" junctionCornerDetail="5" limitTurnSpeed="5.50" xmlns:xsi="http://www.w3.org/2001/XMLSchema-instance" xsi:noNamespaceSchemaLocation="http://sumo.dlr.de/xsd/net_file.xsd">

    <location netOffset="0.00,0.00" convBoundary="-58.10,46.05,173.30,120.68" origBoundary="10000000000.00,10000000000.00,-10000000000.00,-10000000000.00" projParameter="!"/>

    <edge id=":J1_0" function="internal">
        <lane id=":J1_0_0" index="0" speed="13.89" length="11.16" shape="-1.12,35.73 10.08,35.84"/>
        <lane id=":J1_0_1" index="1" speed="13.89" length="11.16" shape="-1.13,38.93 10.04,39.04"/>
        <lane id=":J1_0_2" index="2" speed="13.89" length="11.16" shape="-1.14,42.13 10.00,42.24"/>
        <lane id=":J1_0_3" index="3" speed="13.89" length="11.16" shape="-1.15,45.33 9.95,45.44"/>
    </edge>
    <edge id=":J1_4" function="internal">
        <lane id=":J1_4_0" index="0" speed="6.53" length="9.00" shape="-1.15,45.33 1.27,45.68 3.00,46.74 4.06,48.49 4.43,50.95"/>
    </edge>
    <edge id=":J2_0" function="internal">
        <lane id=":J2_0_0" index="0" speed="13.89" length="11.03" shape="47.96,36.36 58.86,36.40"/>
        <lane id=":J2_0_1" index="1" speed="13.89" length="11.03" shape="47.92,39.56 58.90,39.60"/>
        <lane id=":J2_0_2" index="2" speed="13.89" length="11.03" shape="47.87,42.76 58.94,42.80"/>
        <lane id=":J2_0_3" index="3" speed="13.89" length="11.03" shape="47.83,45.96 58.99,46.00"/>
    </edge>
    <edge id=":J2_4" function="internal">
        <lane id=":J2_4_0" index="0" speed="7.37" length="11.68" shape="53.29,51.56 53.67,47.75 54.74,45.03 56.50,43.38 58.94,42.80"/>
        <lane id=":J2_4_1" index="1" speed="6.56" length="9.03" shape="53.29,51.56 53.66,49.15 54.74,47.43 56.51,46.38 58.99,46.00"/>
    </edge>
    <edge id=":J3_0" function="internal">
        <lane id=":J3_0_0" index="0" speed="13.89" length="14.57" shape="120.05,35.61 134.76,35.71"/>
        <lane id=":J3_0_1" index="1" speed="13.89" length="14.57" shape="120.10,38.81 134.71,38.91"/>
        <lane id=":J3_0_2" index="2" speed="13.89" length="14.57" shape="120.14,42.01 134.67,42.11"/>
        <lane id=":J3_0_3" index="3" speed="13.89" length="14.57" shape="120.18,45.21 134.62,45.31"/>
    </edge>
    <edge id=":J3_4" function="internal">
        <lane id=":J3_4_0" index="0" speed="7.30" length="11.80" shape="120.18,45.21 124.04,45.52 126.79,46.57 128.44,48.34 128.98,50.85"/>
        <lane id=":J3_4_1" index="1" speed="6.49" length="9.09" shape="120.18,45.21 122.64,45.54 124.39,46.58 125.44,48.35 125.78,50.84"/>
    </edge>
    <edge id=":J5_0" function="internal">
        <lane id=":J5_0_0" index="0" speed="6.51" length="9.00" shape="125.51,116.13 125.15,118.57 124.09,120.31 122.35,121.36 119.91,121.71"/>
    </edge>
    <edge id=":J6_0" function="internal">
        <lane id=":J6_0_0" index="0" speed="7.25" length="7.30" shape="58.22,121.71 55.80,121.17 54.09,119.54 53.23,117.24"/>
    </edge>
    <edge id=":J6_2" function="internal">
        <lane id=":J6_2_0" index="0" speed="7.25" length="4.24" shape="53.23,117.24 53.07,116.83 52.76,113.04"/>
    </edge>
    <edge id=":J6_1" function="internal">
        <lane id=":J6_1_0" index="0" speed="6.51" length="8.90" shape="47.22,118.59 49.63,118.22 51.35,117.17 52.40,115.44 52.76,113.04"/>
    </edge>
    <edge id=":J7_0" function="internal">
        <lane id=":J7_0_0" index="0" speed="3.90" length="2.58" shape="5.12,117.46 5.23,118.16 5.53,118.66 6.04,118.95 6.74,119.04"/>
    </edge>

    <edge id="E0" from="J0" to="J1" priority="-1" shape="-58.10,46.05 -5.94,46.91 2.79,46.94">
        <lane id="E0_0" index="0" speed="13.89" length="56.86" shape="-57.92,34.85 -5.83,35.71 -1.12,35.73"/>
        <lane id="E0_1" index="1" speed="13.89" length="56.86" shape="-57.97,38.05 -5.86,38.91 -1.13,38.93"/>
        <lane id="E0_2" index="2" speed="13.89" length="56.86" shape="-58.02,41.25 -5.89,42.11 -1.14,42.13"/>
        <lane id="E0_3" index="3" speed="13.89" length="56.86" shape="-58.07,44.45 -5.92,45.31 -1.15,45.33"/>
    </edge>
    <edge id="E1" from="J1" to="J2" priority="-1">
        <lane id="E1_0" index="0" speed="13.89" length="37.88" shape="10.08,35.84 47.96,36.36"/>
        <lane id="E1_1" index="1" speed="13.89" length="37.88" shape="10.04,39.04 47.92,39.56"/>
        <lane id="E1_2" index="2" speed="13.89" length="37.88" shape="10.00,42.24 47.87,42.76"/>
        <lane id="E1_3" index="3" speed="13.89" length="37.88" shape="9.95,45.44 47.83,45.96"/>
    </edge>
    <edge id="E2" from="J2" to="J3" priority="-1">
        <lane id="E2_0" index="0" speed="13.89" length="61.20" shape="58.86,36.40 120.05,35.61"/>
        <lane id="E2_1" index="1" speed="13.89" length="61.20" shape="58.90,39.60 120.10,38.81"/>
        <lane id="E2_2" index="2" speed="13.89" length="61.20" shape="58.94,42.80 120.14,42.01"/>
        <lane id="E2_3" index="3" speed="13.89" length="61.20" shape="58.99,46.00 120.18,45.21"/>
    </edge>
    <edge id="E3" from="J3" to="J4" priority="-1">
        <lane id="E3_0" index="0" speed="13.89" length="38.71" shape="134.76,35.71 173.46,36.28"/>
        <lane id="E3_1" index="1" speed="13.89" length="38.71" shape="134.71,38.91 173.42,39.48"/>
        <lane id="E3_2" index="2" speed="13.89" length="38.71" shape="134.67,42.11 173.37,42.68"/>
        <lane id="E3_3" index="3" speed="13.89" length="38.71" shape="134.62,45.31 173.32,45.88"/>
    </edge>
    <edge id="E4" from="J3" to="J5" priority="-1">
        <lane id="E4_0" index="0" speed="13.89" length="65.30" shape="128.98,50.85 128.71,116.15"/>
        <lane id="E4_1" index="1" speed="13.89" length="65.30" shape="125.78,50.84 125.51,116.13"/>
    </edge>
    <edge id="E5" from="J5" to="J6" priority="-1">
        <lane id="E5_0" index="0" speed="13.89" length="61.68" shape="119.91,121.71 58.22,121.71"/>
    </edge>
    <edge id="E6" from="J6" to="J2" priority="-1">
        <lane id="E6_0" index="0" speed="13.89" length="61.48" shape="52.76,113.04 53.29,51.56"/>
    </edge>
    <edge id="E7" from="J1" to="J7" priority="-1">
        <lane id="E7_0" index="0" speed="13.89" length="66.52" shape="4.43,50.95 5.12,117.46"/>
    </edge>
    <edge id="E8" from="J7" to="J6" priority="-1">
        <lane id="E8_0" index="0" speed="13.89" length="40.49" shape="6.74,119.04 47.22,118.59"/>
    </edge>

    <junction id="J0" type="dead_end" x="-58.10" y="46.05" incLanes="" intLanes="" shape="-58.10,46.05 -57.89,33.25"/>
    <junction id="J1" type="priority" x="2.79" y="46.94" incLanes="E0_0 E0_1 E0_2 E0_3" intLanes=":J1_0_0 :J1_0_1 :J1_0_2 :J1_0_3 :J1_4_0" shape="2.83,50.96 6.03,50.93 6.44,48.74 6.98,47.98 7.74,47.45 8.73,47.13 9.93,47.04 10.11,34.24 -1.12,34.13 -1.16,46.93 1.04,47.38 1.81,47.94 2.37,48.73 2.70,49.73">
        <request index="0" response="00000" foes="00000" cont="0"/>
        <request index="1" response="00000" foes="00000" cont="0"/>
        <request index="2" response="00000" foes="00000" cont="0"/>
        <request index="3" response="00000" foes="00000" cont="0"/>
        <request index="4" response="00000" foes="00000" cont="0"/>
    </junction>
    <junction id="J2" type="priority" x="54.92" y="47.66" incLanes="E1_0 E1_1 E1_2 E1_3 E6_0" intLanes=":J2_0_0 :J2_0_1 :J2_0_2 :J2_0_3 :J2_4_0 :J2_4_1" shape="59.01,47.60 58.84,34.80 47.98,34.76 47.81,47.56 49.98,48.02 50.73,48.58 51.27,49.35 51.59,50.34 51.69,51.54 54.89,51.57 55.36,49.39 55.93,48.62 56.73,48.07 57.76,47.73">
        <request index="0" response="000000" foes="110000" cont="0"/>
        <request index="1" response="000000" foes="110000" cont="0"/>
        <request index="2" response="000000" foes="110000" cont="0"/>
        <request index="3" response="000000" foes="110000" cont="0"/>
        <request index="4" response="001111" foes="001111" cont="0"/>
        <request index="5" response="001111" foes="001111" cont="0"/>
    </junction>
    <junction id="J3" type="priority" x="124.20" y="46.76" incLanes="E2_0 E2_1 E2_2 E2_3" intLanes=":J3_0_0 :J3_0_1 :J3_0_2 :J3_0_3 :J3_4_0 :J3_4_1" shape="134.60,46.91 134.78,34.11 120.03,34.01 120.20,46.81 122.42,47.24 123.19,47.79 123.75,48.58 124.08,49.59 124.18,50.83 130.58,50.86 131.03,48.64 131.59,47.87 132.37,47.33 133.38,47.01">
        <request index="0" response="000000" foes="000000" cont="0"/>
        <request index="1" response="000000" foes="000000" cont="0"/>
        <request index="2" response="000000" foes="000000" cont="0"/>
        <request index="3" response="000000" foes="000000" cont="0"/>
        <request index="4" response="000000" foes="000000" cont="0"/>
        <request index="5" response="000000" foes="000000" cont="0"/>
    </junction>
    <junction id="J4" type="dead_end" x="173.30" y="47.48" incLanes="E3_0 E3_1 E3_2 E3_3" intLanes="" shape="173.49,34.68 173.30,47.48"/>
    <junction id="J5" type="priority" x="123.89" y="120.11" incLanes="E4_0 E4_1" intLanes=":J5_0_0" shape="130.31,116.15 123.91,116.13 123.45,118.34 122.90,119.11 122.12,119.67 121.12,120.00 119.91,120.11 119.91,123.31 123.07,123.11 125.67,122.51 127.69,121.52 129.14,120.13 130.01,118.34">
        <request index="0" response="0" foes="0" cont="0"/>
    </junction>
    <junction id="J6" type="priority" x="54.30" y="120.11" incLanes="E5_0 E8_0" intLanes=":J6_2_0 :J6_1_0" shape="58.22,123.31 58.22,120.11 56.05,119.32 55.30,118.34 54.76,116.97 54.45,115.21 54.36,113.05 51.16,113.02 50.71,115.21 50.16,115.98 49.39,116.53 48.41,116.87 47.21,116.99 47.24,120.19 49.64,120.40 51.36,120.97 52.73,121.72 54.11,122.49 55.82,123.07">
        <request index="0" response="10" foes="10" cont="1"/>
        <request index="1" response="00" foes="01" cont="0"/>
    </junction>
    <junction id="J7" type="priority" x="3.55" y="120.68" incLanes="E7_0" intLanes=":J7_0_0" shape="6.76,120.64 6.72,117.44 3.52,117.48 3.90,119.25 4.35,119.87 4.97,120.31 5.78,120.57">
        <request index="0" response="0" foes="0" cont="0"/>
    </junction>

    <junction id=":J6_2_0" type="internal" x="53.23" y="117.24" incLanes=":J6_0_0 E8_0" intLanes=":J6_1_0"/>

    <connection from="E0" to="E1" fromLane="0" toLane="0" via=":J1_0_0" dir="s" state="M"/>
    <connection from="E0" to="E1" fromLane="1" toLane="1" via=":J1_0_1" dir="s" state="M"/>
    <connection from="E0" to="E1" fromLane="2" toLane="2" via=":J1_0_2" dir="s" state="M"/>
    <connection from="E0" to="E1" fromLane="3" toLane="3" via=":J1_0_3" dir="s" state="M"/>
    <connection from="E0" to="E7" fromLane="3" toLane="0" via=":J1_4_0" dir="l" state="M"/>
    <connection from="E1" to="E2" fromLane="0" toLane="0" via=":J2_0_0" dir="s" state="M"/>
    <connection from="E1" to="E2" fromLane="1" toLane="1" via=":J2_0_1" dir="s" state="M"/>
    <connection from="E1" to="E2" fromLane="2" toLane="2" via=":J2_0_2" dir="s" state="M"/>
    <connection from="E1" to="E2" fromLane="3" toLane="3" via=":J2_0_3" dir="s" state="M"/>
    <connection from="E2" to="E3" fromLane="0" toLane="0" via=":J3_0_0" dir="s" state="M"/>
    <connection from="E2" to="E3" fromLane="1" toLane="1" via=":J3_0_1" dir="s" state="M"/>
    <connection from="E2" to="E3" fromLane="2" toLane="2" via=":J3_0_2" dir="s" state="M"/>
    <connection from="E2" to="E3" fromLane="3" toLane="3" via=":J3_0_3" dir="s" state="M"/>
    <connection from="E2" to="E4" fromLane="3" toLane="0" via=":J3_4_0" dir="l" state="M"/>
    <connection from="E2" to="E4" fromLane="3" toLane="1" via=":J3_4_1" dir="l" state="M"/>
    <connection from="E4" to="E5" fromLane="1" toLane="0" via=":J5_0_0" dir="l" state="M"/>
    <connection from="E5" to="E6" fromLane="0" toLane="0" via=":J6_0_0" dir="l" state="m"/>
    <connection from="E6" to="E2" fromLane="0" toLane="2" via=":J2_4_0" dir="l" state="m"/>
    <connection from="E6" to="E2" fromLane="0" toLane="3" via=":J2_4_1" dir="l" state="m"/>
    <connection from="E7" to="E8" fromLane="0" toLane="0" via=":J7_0_0" dir="r" state="M"/>
    <connection from="E8" to="E6" fromLane="0" toLane="0" via=":J6_1_0" dir="r" state="M"/>

    <connection from=":J1_0" to="E1" fromLane="0" toLane="0" dir="s" state="M"/>
    <connection from=":J1_0" to="E1" fromLane="1" toLane="1" dir="s" state="M"/>
    <connection from=":J1_0" to="E1" fromLane="2" toLane="2" dir="s" state="M"/>
    <connection from=":J1_0" to="E1" fromLane="3" toLane="3" dir="s" state="M"/>
    <connection from=":J1_4" to="E7" fromLane="0" toLane="0" dir="l" state="M"/>
    <connection from=":J2_0" to="E2" fromLane="0" toLane="0" dir="s" state="M"/>
    <connection from=":J2_0" to="E2" fromLane="1" toLane="1" dir="s" state="M"/>
    <connection from=":J2_0" to="E2" fromLane="2" toLane="2" dir="s" state="M"/>
    <connection from=":J2_0" to="E2" fromLane="3" toLane="3" dir="s" state="M"/>
    <connection from=":J2_4" to="E2" fromLane="0" toLane="2" dir="l" state="M"/>
    <connection from=":J2_4" to="E2" fromLane="1" toLane="3" dir="l" state="M"/>
    <connection from=":J3_0" to="E3" fromLane="0" toLane="0" dir="s" state="M"/>
    <connection from=":J3_0" to="E3" fromLane="1" toLane="1" dir="s" state="M"/>
    <connection from=":J3_0" to="E3" fromLane="2" toLane="2" dir="s" state="M"/>
    <connection from=":J3_0" to="E3" fromLane="3" toLane="3" dir="s" state="M"/>
    <connection from=":J3_4" to="E4" fromLane="0" toLane="0" dir="l" state="M"/>
    <connection from=":J3_4" to="E4" fromLane="1" toLane="1" dir="l" state="M"/>
    <connection from=":J5_0" to="E5" fromLane="0" toLane="0" dir="l" state="M"/>
    <connection from=":J6_0" to="E6" fromLane="0" toLane="0" via=":J6_2_0" dir="l" state="m"/>
    <connection from=":J6_2" to="E6" fromLane="0" toLane="0" dir="l" state="M"/>
    <connection from=":J6_1" to="E6" fromLane="0" toLane="0" dir="r" state="M"/>
    <connection from=":J7_0" to="E8" fromLane="0" toLane="0" dir="r" state="M"/>

</net>
