<?xml version="1.0" encoding="UTF-8"?>

<!-- generated on 2023-12-26 16:53:37 by Eclipse SUMO netedit Version 1.17.0
<configuration xmlns:xsi="http://www.w3.org/2001/XMLSchema-instance" xsi:noNamespaceSchemaLocation="http://sumo.dlr.de/xsd/netconvertConfiguration.xsd">

    <input>
        <route-files value="C:\Users\ASUS\OneDrive - Technion\Studies\Theza\Scenarios\Merge\AV\merge.rou.xml"/>
        <sumo-net-file value="C:\Users\ASUS\OneDrive - Technion\Studies\Theza\Scenarios\Merge\AV\merge.net.xml"/>
    </input>

    <output>
        <output-file value="C:\Users\ASUS\OneDrive - Technion\Studies\Theza\Scenarios\Merge\AV\merge.net.xml"/>
    </output>

    <processing>
        <geometry.min-radius.fix.railways value="false"/>
        <geometry.max-grade.fix value="false"/>
        <offset.disable-normalization value="true"/>
        <lefthand value="0"/>
    </processing>

    <junctions>
        <no-turnarounds value="true"/>
        <junctions.corner-detail value="5"/>
        <junctions.limit-turn-speed value="5.50"/>
        <rectangular-lane-cut value="0"/>
    </junctions>

    <pedestrian>
        <walkingareas value="0"/>
    </pedestrian>

</configuration>
-->

<net version="1.16" junctionCornerDetail="5" limitTurnSpeed="5.50" xmlns:xsi="http://www.w3.org/2001/XMLSchema-instance" xsi:noNamespaceSchemaLocation="http://sumo.dlr.de/xsd/net_file.xsd">

    <location netOffset="0.00,0.00" convBoundary="-100.00,-50.00,50.00,0.00" origBoundary="-10000000000.00,-10000000000.00,10000000000.00,10000000000.00" projParameter="!"/>

    <edge id=":J1_0" function="internal">
        <lane id=":J1_0_0" index="0" speed="9.11" length="7.49" shape="-6.44,-8.70 -4.59,-7.00 -2.93,-5.78 -1.48,-5.04 -0.22,-4.80"/>
    </edge>
    <edge id=":J1_1" function="internal">
        <lane id=":J1_1_0" index="0" speed="13.89" length="7.84" shape="-8.06,-4.80 -0.22,-4.80"/>
        <lane id=":J1_1_1" index="1" speed="13.89" length="7.84" shape="-8.06,-1.60 -0.22,-1.60"/>
    </edge>

    <edge id="E0" from="J0" to="J1" priority="-1">
        <lane id="E0_0" index="0" speed="13.89" length="91.94" shape="-100.00,-4.80 -8.06,-4.80"/>
        <lane id="E0_1" index="1" speed="13.89" length="91.94" shape="-100.00,-1.60 -8.06,-1.60"/>
    </edge>
    <edge id="E1" from="J1" to="J2" priority="-1">
        <lane id="E1_0" index="0" speed="13.89" length="50.22" shape="-0.22,-4.80 50.00,-4.80"/>
        <lane id="E1_1" index="1" speed="13.89" length="50.22" shape="-0.22,-1.60 50.00,-1.60"/>
    </edge>
    <edge id="E2" from="J3" to="J1" priority="-1">
        <lane id="E2_0" index="0" speed="13.89" length="60.00" shape="-48.87,-51.13 -6.44,-8.70"/>
    </edge>

    <junction id="J0" type="dead_end" x="-100.00" y="0.00" incLanes="" intLanes="" shape="-100.00,0.00 -100.00,-6.40"/>
    <junction id="J1" type="priority" x="0.00" y="0.00" incLanes="E2_0 E0_0 E0_1" intLanes=":J1_0_0 :J1_1_0 :J1_1_1" shape="-0.22,0.00 -0.22,-6.40 -1.52,-6.78 -2.32,-7.26 -3.22,-7.93 -4.21,-8.78 -5.31,-9.83 -7.57,-7.57 -7.10,-6.92 -7.11,-6.69 -7.27,-6.53 -7.58,-6.43 -8.06,-6.40 -8.06,0.00">
        <request index="0" response="110" foes="110" cont="0"/>
        <request index="1" response="000" foes="001" cont="0"/>
        <request index="2" response="000" foes="001" cont="0"/>
    </junction>
    <junction id="J2" type="dead_end" x="50.00" y="0.00" incLanes="E1_0 E1_1" intLanes="" shape="50.00,-6.40 50.00,0.00"/>
    <junction id="J3" type="dead_end" x="-50.00" y="-50.00" incLanes="" intLanes="" shape="-50.00,-50.00 -47.74,-52.26"/>

    <connection from="E0" to="E1" fromLane="0" toLane="0" via=":J1_1_0" dir="s" state="M"/>
    <connection from="E0" to="E1" fromLane="1" toLane="1" via=":J1_1_1" dir="s" state="M"/>
    <connection from="E2" to="E1" fromLane="0" toLane="0" via=":J1_0_0" dir="r" state="m"/>

    <connection from=":J1_0" to="E1" fromLane="0" toLane="0" dir="r" state="M"/>
    <connection from=":J1_1" to="E1" fromLane="0" toLane="0" dir="s" state="M"/>
    <connection from=":J1_1" to="E1" fromLane="1" toLane="1" dir="s" state="M"/>

</net>
