<?xml version="1.0" encoding="UTF-8"?>

<!-- generated on 2023-12-26 17:06:41 by Eclipse SUMO netedit Version 1.17.0
-->

<routes xmlns:xsi="http://www.w3.org/2001/XMLSchema-instance" xsi:noNamespaceSchemaLocation="http://sumo.dlr.de/xsd/routes_file.xsd">
    <!-- VTypes -->
    <vType id="AV" color="blue"/>
    <vType id="HD" color="red"/>
    <!-- Vehicles, persons and containers (sorted by depart) -->
    <flow id="MajorFlow" begin="0.00" departLane="random" line="0" fromJunction="J0" toJunction="J2" end="180.00" vehsPerHour="1000.00"/>
    <flow id="MinorFlow" begin="0.00" departLane="random" color="green" line="0" fromJunction="J3" toJunction="J2" end="180.00" vehsPerHour="500.00"/>
</routes>
