<configuration xmlns:xsi="http://www.w3.org/2001/XMLSchema-instance" xsi:noNamespaceSchemaLocation="http://sumo.dlr.de/xsd/sumoConfiguration.xsd">

    <input>
        <net-file value="merge.net.xml" />
        <route-files value="merge.rou.xml" />
		<junction-taz value="true" />
    </input>

</configuration>