<?xml version="1.0" encoding="UTF-8"?>

<!-- generated on 2024-01-02 18:19:35 by Eclipse SUMO GUI Version 1.17.0
-->

<configuration xmlns:xsi="http://www.w3.org/2001/XMLSchema-instance" xsi:noNamespaceSchemaLocation="http://sumo.dlr.de/xsd/sumoConfiguration.xsd">

    <input>
        <net-file value="blockedlane.net.xml"/>
		<route-files value="blockedlane.rou.xml" />
    </input>

</configuration>
