<routes xmlns:xsi="http://www.w3.org/2001/XMLSchema-instance" xsi:noNamespaceSchemaLocation="http://sumo.dlr.de/xsd/routes_file.xsd">
    
    <vType id="AV" color="blue" />
    <vType id="HD" color="red" />
    <vType id="emergency" speedFactor="normc(3.00,0.00)" vClass="emergency" carFollowModel="KraussPS" accel="5.2" decel="9" color="magenta" />
    
    <route id="r_0" edges="E0" />
    
    <flow id="MajorFlow" begin="0.00" departLane="random" line="0" fromJunction="J0" toJunction="J2" end="7200" vehsPerHour="1000" />
</routes>