<?xml version="1.0" encoding="UTF-8"?>

<!-- generated on 2023-12-24 14:17:34 by Eclipse SUMO netedit Version 1.17.0
<configuration xmlns:xsi="http://www.w3.org/2001/XMLSchema-instance" xsi:noNamespaceSchemaLocation="http://sumo.dlr.de/xsd/netconvertConfiguration.xsd">

    <input>
        <sumocfg-file value="C:\Users\ASUS\OneDrive - Technion\Studies\Theza\Merge\Merge.sumocfg"/>
        <route-files value="C:\Users\ASUS\OneDrive - Technion\Studies\Theza\Merge\merge.rou.xml"/>
        <sumo-net-file value="C:\Users\ASUS\OneDrive - Technion\Studies\Theza\Merge\merge.net.xml"/>
    </input>

    <output>
        <output-file value="C:\Users\ASUS\OneDrive - Technion\Studies\Theza\Merge\merge.net.xml"/>
    </output>

    <processing>
        <offset.disable-normalization value="true"/>
    </processing>

    <junctions>
        <no-turnarounds value="true"/>
    </junctions>

    <netedit>
        <new-network value="false"/>
    </netedit>

</configuration>
-->

<net version="1.16" junctionCornerDetail="5" limitTurnSpeed="5.50" xmlns:xsi="http://www.w3.org/2001/XMLSchema-instance" xsi:noNamespaceSchemaLocation="http://sumo.dlr.de/xsd/net_file.xsd">

    <location netOffset="0.00,0.00" convBoundary="-143.90,27.39,52.49,83.35" origBoundary="10000000000.00,10000000000.00,-10000000000.00,-10000000000.00" projParameter="!"/>

    <edge id=":J0_0" function="internal">
        <lane id=":J0_0_0" index="0" speed="13.89" length="8.40" shape="-99.79,81.36 -97.33,80.86 -95.79,79.76 -94.26,78.66 -91.80,78.16"/>
        <lane id=":J0_0_1" index="1" speed="13.89" length="8.40" shape="-99.79,81.36 -91.80,81.36"/>
    </edge>
    <edge id=":J1_0" function="internal">
        <lane id=":J1_0_0" index="0" speed="9.43" length="7.67" shape="-29.81,74.29 -28.24,75.97 -27.08,77.17 -25.73,77.90 -23.57,78.15"/>
    </edge>
    <edge id=":J1_1" function="internal">
        <lane id=":J1_1_0" index="0" speed="13.89" length="7.79" shape="-31.37,78.16 -23.57,78.15"/>
        <lane id=":J1_1_1" index="1" speed="13.89" length="7.79" shape="-31.37,81.36 -23.59,81.35"/>
    </edge>
    <edge id=":J3_0" function="internal">
        <lane id=":J3_0_0" index="0" speed="13.89" length="0.46" shape="-65.20,40.29 -65.08,40.36 -65.00,40.41 -64.93,40.47 -64.83,40.56"/>
    </edge>

    <edge id="E0" from="J0" to="J1" priority="-1">
        <lane id="E0_0" index="0" speed="13.89" length="60.43" shape="-91.80,78.16 -31.37,78.16"/>
        <lane id="E0_1" index="1" speed="13.89" length="60.43" shape="-91.80,81.36 -31.37,81.36"/>
    </edge>
    <edge id="E1" from="J1" to="J2" priority="-1">
        <lane id="E1_0" index="0" speed="13.89" length="76.09" shape="-23.57,78.15 52.52,78.55"/>
        <lane id="E1_1" index="1" speed="13.89" length="76.09" shape="-23.59,81.35 52.50,81.75"/>
    </edge>
    <edge id="E2" from="J3" to="J1" priority="-1">
        <lane id="E2_0" index="0" speed="13.89" length="48.62" shape="-64.83,40.56 -29.81,74.29"/>
    </edge>
    <edge id="E3" from="J4" to="J0" priority="-1">
        <lane id="E3_0" index="0" speed="13.89" length="44.11" shape="-143.90,81.40 -99.79,81.36"/>
    </edge>
    <edge id="E4" from="J5" to="J3" priority="-1">
        <lane id="E4_0" index="0" speed="13.89" length="30.87" shape="-92.55,25.97 -65.20,40.29"/>
    </edge>

    <junction id="J0" type="priority" x="-95.79" y="82.96" incLanes="E3_0" intLanes=":J0_0_0 :J0_0_1" shape="-91.80,82.96 -91.80,76.56 -94.83,77.39 -96.76,78.93 -98.01,79.52 -99.80,79.76 -99.79,82.96">
        <request index="0" response="00" foes="00" cont="0"/>
        <request index="1" response="00" foes="00" cont="0"/>
    </junction>
    <junction id="J1" type="priority" x="-23.13" y="82.96" incLanes="E2_0 E0_0 E0_1" intLanes=":J1_0_0 :J1_1_0 :J1_1_1" shape="-23.60,82.95 -23.57,76.55 -25.77,76.14 -26.46,75.64 -27.07,74.97 -27.76,74.13 -28.70,73.14 -30.92,75.44 -30.46,76.06 -30.46,76.28 -30.61,76.43 -30.91,76.52 -31.37,76.56 -31.37,82.96">
        <request index="0" response="110" foes="110" cont="0"/>
        <request index="1" response="000" foes="001" cont="0"/>
        <request index="2" response="000" foes="001" cont="0"/>
    </junction>
    <junction id="J2" type="dead_end" x="52.49" y="83.35" incLanes="E1_0 E1_1" intLanes="" shape="52.52,76.95 52.49,83.35"/>
    <junction id="J3" type="priority" x="-65.94" y="41.71" incLanes="E4_0" intLanes=":J3_0_0" shape="-65.94,41.71 -63.72,39.41 -63.97,39.18 -64.06,39.10 -64.16,39.04 -64.29,38.97 -64.46,38.88">
        <request index="0" response="0" foes="0" cont="0"/>
    </junction>
    <junction id="J4" type="dead_end" x="-143.90" y="83.00" incLanes="" intLanes="" shape="-143.90,83.00 -143.90,79.80"/>
    <junction id="J5" type="dead_end" x="-93.29" y="27.39" incLanes="" intLanes="" shape="-93.29,27.39 -91.81,24.55"/>

    <connection from="E0" to="E1" fromLane="0" toLane="0" via=":J1_1_0" dir="s" state="M"/>
    <connection from="E0" to="E1" fromLane="1" toLane="1" via=":J1_1_1" dir="s" state="M"/>
    <connection from="E2" to="E1" fromLane="0" toLane="0" via=":J1_0_0" dir="s" state="m"/>
    <connection from="E3" to="E0" fromLane="0" toLane="0" via=":J0_0_0" dir="s" state="M"/>
    <connection from="E3" to="E0" fromLane="0" toLane="1" via=":J0_0_1" dir="s" state="M"/>
    <connection from="E4" to="E2" fromLane="0" toLane="0" via=":J3_0_0" dir="s" state="M"/>

    <connection from=":J0_0" to="E0" fromLane="0" toLane="0" dir="s" state="M"/>
    <connection from=":J0_0" to="E0" fromLane="1" toLane="1" dir="s" state="M"/>
    <connection from=":J1_0" to="E1" fromLane="0" toLane="0" dir="s" state="M"/>
    <connection from=":J1_1" to="E1" fromLane="0" toLane="0" dir="s" state="M"/>
    <connection from=":J1_1" to="E1" fromLane="1" toLane="1" dir="s" state="M"/>
    <connection from=":J3_0" to="E2" fromLane="0" toLane="0" dir="s" state="M"/>

</net>
