<?xml version="1.0" encoding="UTF-8"?>

<!-- generated on 2023-12-24 14:19:39 by Eclipse SUMO netedit Version 1.17.0
-->

<routes xmlns:xsi="http://www.w3.org/2001/XMLSchema-instance" xsi:noNamespaceSchemaLocation="http://sumo.dlr.de/xsd/routes_file.xsd">
    <!-- Vehicles, persons and containers (sorted by depart) -->
    <flow id="MajorFlow" begin="0.00" departLane="random" line="0" fromJunction="J0" toJunction="J2" end="3600.00" vehsPerHour="2000.00"/>
    <flow id="MinorFlow" begin="0.00" departLane="random" color="green" line="0" fromJunction="J3" toJunction="J2" end="3600.00" vehsPerHour="400.00"/>
</routes>
