<?xml version="1.0" encoding="UTF-8"?>

<!-- generated on 2024-03-20 23:56:59 by Eclipse SUMO netedit Version 1.19.0
-->

<additional xmlns:xsi="http://www.w3.org/2001/XMLSchema-instance" xsi:noNamespaceSchemaLocation="http://sumo.dlr.de/xsd/additional_file.xsd">
    <!-- StoppingPlaces -->
    <busStop id="21257" lane="E1_0" startPos="1200.00" endPos="1210.00" lines="1"/>
    <busStop id="21280" lane="E1_0" startPos="1850.00" endPos="1860.00" lines="1"/>
    <busStop id="21632" lane="E1_0" startPos="2850.00" endPos="2860.00" lines="1"/>
    <busStop id="26834" lane="E1_0" startPos="6600.00" endPos="6610.00" lines="1"/>
    <busStop id="36393" lane="E1_0" startPos="7800.00" endPos="7810.00" lines="1"/>
</additional>
