<?xml version="1.0" encoding="UTF-8"?>

<!-- generated on 2024-03-21 16:14:57 by Eclipse SUMO netedit Version 1.19.0
<configuration xmlns:xsi="http://www.w3.org/2001/XMLSchema-instance" xsi:noNamespaceSchemaLocation="http://sumo.dlr.de/xsd/neteditConfiguration.xsd">

    <input>
        <sumo-net-file value="C:\Users\tal\OneDrive - Technion\Studies\Theza\Scenarios\PublicTransportV2\PublicTransportV2.net.xml"/>
    </input>

    <output>
        <output-file value="C:\Users\tal\OneDrive - Technion\Studies\Theza\Scenarios\PublicTransportV2\PublicTransportV2.net.xml"/>
    </output>

    <processing>
        <geometry.min-radius.fix.railways value="false"/>
        <geometry.max-grade.fix value="false"/>
        <offset.disable-normalization value="true"/>
        <lefthand value="0"/>
    </processing>

    <junctions>
        <no-internal-links value="true"/>
        <no-turnarounds value="true"/>
        <junctions.corner-detail value="5"/>
        <junctions.limit-turn-speed value="5.50"/>
        <rectangular-lane-cut value="0"/>
    </junctions>

    <pedestrian>
        <walkingareas value="0"/>
    </pedestrian>

</configuration>
-->

<net version="1.16" junctionCornerDetail="5" limitTurnSpeed="5.50" xmlns:xsi="http://www.w3.org/2001/XMLSchema-instance" xsi:noNamespaceSchemaLocation="http://sumo.dlr.de/xsd/net_file.xsd">

    <location netOffset="0.00,0.00" convBoundary="0.00,0.00,9000.00,0.00" origBoundary="-10000000000.00,-10000000000.00,10000000000.00,10000000000.00" projParameter="!"/>

    <edge id="E1" from="J0" to="J1" priority="-1">
        <lane id="E1_0" index="0" allow="bus" speed="25" length="8000.00" acceleration="1" shape="0.00,-8.00 7996.00,-8.00">
            <stopOffset vClasses="all" value="10.00"/>
        </lane>
        <lane id="E1_1" index="1" speed="25" length="8000.00" shape="0.00,-4.80 7996.00,-4.80"/>
        <lane id="E1_2" index="2" speed="25" length="8000.00" shape="0.00,-1.60 7996.00,-1.60"/>
    </edge>
    <edge id="E2" from="J1" to="J2" priority="-1">
        <lane id="E2_0" index="0" allow="bus" speed="25" length="1000.00" shape="8004.00,-4.80 9000.00,-4.80"/>
        <lane id="E2_1" index="1" speed="25" length="1000.00" shape="8004.00,-1.60 9000.00,-1.60"/>
    </edge>

    <junction id="J0" type="dead_end" x="0.00" y="0.00" incLanes="" intLanes="" shape="0.00,0.00 0.00,-9.60"/>
    <junction id="J1" type="priority" x="8000.00" y="0.00" incLanes="E1_0 E1_1 E1_2" intLanes="" shape="8004.00,0.00 8004.00,-6.40 8000.97,-7.23 7999.03,-8.77 7997.79,-9.36 7996.00,-9.60 7996.00,0.00">
        <request index="0" response="00" foes="00"/>
        <request index="1" response="00" foes="00"/>
    </junction>
    <junction id="J2" type="dead_end" x="9000.00" y="0.00" incLanes="E2_0 E2_1" intLanes="" shape="9000.00,-6.40 9000.00,0.00"/>

    <connection from="E1" to="E2" fromLane="1" toLane="0" dir="s" state="M"/>
    <connection from="E1" to="E2" fromLane="2" toLane="1" dir="s" state="M"/>

</net>
